%chk=Oxirane-d4.chk
%mem=4GB
%nproc=2
#P B3LYP/3-21G opt freq

Custom Oxirane Chain

0 1
H          0.95871        0.08325       -0.03693
H          0.62537       -0.08580        0.89059
C          0.26870       -0.26668        1.88305
C          1.44264       -0.59332        2.79166
O         -0.63717       -1.36010        1.86854
H          1.08597       -0.77420        3.78412
H          1.94310       -1.46631        2.42788
H         -0.23176        0.60631        2.24683
H          0.62537        0.97104       -0.35430
C          0.26871        1.92097       -0.69388
C         -1.16006        2.12560       -0.21728
O          0.30455        1.96033       -2.11288
H         -1.51673        3.07554       -0.55686
H         -1.78216        1.34937       -0.61145
H          0.89080        2.69720       -0.29971
H          0.62538       -0.63549       -0.64710
C          0.26872       -1.40454       -1.29998
C          0.64009       -1.06424       -2.73409
O         -1.14334       -1.50372       -1.18750
H          0.28343       -1.83330       -3.38697
H          0.19416       -0.13037       -3.00599
H          0.71464       -2.33841       -1.02807
H          1.95871        0.08325       -0.03693

