%chk=Poly(ethylene glycol).chk
%mem=4GB
%nproc=2
#P B3LYP/3-21G opt freq

Polyethylene Glycol Chain

0 1
H          0.92338        0.06346        0.01007
O          1.92338        0.06346        0.01007
N          2.47205        0.90816       -0.91855
C          1.78649        1.18537       -2.09886
O          0.65197        0.65472       -2.31440
C          2.36328        2.07335       -3.07507
C          1.65441        2.35999       -4.29553
C          0.36875        1.75865       -4.53978
C         -0.20803        0.87066       -3.56357
O          0.41751        0.61772       -2.48658
N         -1.45139        0.28910       -3.79979
C         -2.13694        0.56631       -4.98010
O         -1.62796        1.34991       -5.84155
C         -0.34012        2.04528       -5.76024
C          0.23667        2.93327       -6.73645
C          3.64893        2.67470       -2.83083
C          3.71541        1.48973       -0.68234
O          4.34095        1.23678        0.39465
C         -2.04011       -0.61726       -2.80338
C         -3.32576       -1.21860       -3.04762
C         -4.03463       -0.93196       -4.26808
C         -5.32028       -1.53331       -4.51233
C         -6.02915       -1.24667       -5.73279
C         -1.33124       -0.90389       -1.58292
O         -5.46046       -0.37114       -6.69531
C         -6.15939       -0.08852       -7.89865
C         -5.58260        0.79946       -8.87486
C         -4.29695        1.40080       -8.63061
C         -3.72017        2.28879       -9.60682
C         -2.43452        2.89013       -9.36257
C         -7.44504       -0.68987       -8.14290
O         -1.73559        2.60751       -8.15923
C         -0.46797        3.20042       -7.91841
C          0.24090        2.91378       -6.69795
C         -0.33588        2.02580       -5.72174
C          0.37299        1.73917       -4.50128
C         -0.20379        0.85118       -3.52507
C          0.10881        4.08840       -8.89462
N          2.16737       -0.49469        1.23720
C          1.15353       -1.17613        1.90632
O          0.00210       -1.28013        1.37852
C          1.41002       -1.76289        3.19632
C          0.36169       -2.46751        3.88821
C         -0.94312       -2.58536        3.29010
C         -1.19962       -1.99860        2.00010
O         -0.27452       -1.37682        1.38954
N         -2.46151       -2.11258        1.42166
C         -3.47535       -2.79402        2.09078
O         -3.24901       -3.31180        3.22914
C         -1.99145       -3.28998        3.98198
C         -1.73496       -3.87674        5.27199
C          2.71483       -1.64503        3.79444
C          3.42926       -0.38071        1.81564
O          4.35435        0.24107        1.20508
C         -2.72331       -1.51368        0.10496
C         -4.02812       -1.63154       -0.49315
C         -5.07645       -2.33616        0.19874
C         -6.38127       -2.45401       -0.39938
C         -7.42959       -3.15863        0.29251
C         -1.67498       -0.80907       -0.58692
O         -7.17670       -3.73716        1.56442
C         -8.21032       -4.43189        2.24660
C         -7.95383       -5.01865        3.53660
C         -6.64901       -4.90079        4.13471
C         -6.39252       -5.48755        5.42472
C         -5.08770       -5.36969        6.02283
C         -9.51513       -4.54975        1.64849
O         -4.05408       -4.67496        5.34065
C         -2.76757       -4.55876        5.93037
C         -1.71924       -3.85414        5.23849
C         -1.97573       -3.26738        3.94848
C         -0.92741       -2.56277        3.25660
C         -1.18390       -1.97601        1.96660
C         -2.51108       -5.14551        7.22037
N          2.60838        0.78045       -0.93523
C          1.91197        1.50939       -1.89628
O          0.64107        1.50939       -1.89628
C          2.63207        2.26312       -2.89002
C          1.91197        3.01685       -3.88377
C          0.47177        3.01685       -3.88377
C         -0.24833        2.26312       -2.89002
O          0.38712        1.59799       -2.01310
N         -1.64116        2.26312       -2.89002
C         -2.33757        2.99206       -3.85108
O         -1.70212        3.65719       -4.72800
C         -0.24833        3.77058       -4.87751
C          0.47177        4.52431       -5.87125
C          4.07227        2.26312       -2.89002
C          4.00120        0.78045       -0.93523
O          4.63665        0.11533       -0.05831
C         -2.37616        1.49380       -1.87572
C         -3.81636        1.49380       -1.87572
C         -4.53646        2.24753       -2.86946
C         -5.97666        2.24753       -2.86946
C         -6.69676        3.00126       -3.86320
C         -1.65606        0.74006       -0.88198
O         -5.98676        3.74441       -4.84301
C         -6.69676        4.48757       -5.82281
C         -5.97666        5.24130       -6.81655
C         -4.53646        5.24130       -6.81655
C         -3.81636        5.99503       -7.81030
C         -2.37616        5.99503       -7.81030
C         -8.13696        4.48757       -5.82281
O         -1.66616        5.25188       -6.83049
C         -0.24616        5.25188       -6.83049
C          0.47394        4.49814       -5.83675
C         -0.24616        3.74441       -4.84301
C          0.47394        2.99068       -3.84927
C         -0.24616        2.23695       -2.85552
C          0.47394        6.00561       -7.82423
O          2.58338       -0.62736        0.92088
H          3.56654       -0.51693        0.77528
H          2.08293        3.01972       -5.02081
H         -0.28999        3.14622       -7.64319
H         -3.75428       -1.87833       -2.32235
H         -3.60611       -0.27223       -4.99336
H         -5.74881       -2.19304       -3.78705
H         -0.37606       -0.45712       -1.40145
H         -6.10926        1.01242       -9.78160
H         -3.77030        1.18784       -7.72387
H         -4.24683        2.50174      -10.51356
H         -7.87356       -1.34960       -7.41762
H          1.19608        3.36056       -6.51648
H         -1.29106        1.57903       -5.90320
H          1.32817        2.18594       -4.31982
H         -1.15897        0.40441       -3.70654
H         -0.41784        4.30136       -9.80136
H          0.55225       -2.90344        4.84662
H         -2.51381       -4.40023        5.78602
H         -4.21868       -1.19561       -1.45156
H         -4.88589       -2.77209        1.15715
H         -6.57183       -2.01808       -1.35779
H         -0.70557       -0.72151       -0.14255
H         -8.73268       -5.54214        4.05064
H         -5.87016       -4.37730        3.62068
H         -7.17138       -6.01105        5.93876
H         -9.70570       -4.11381        0.69008
H         -0.74983       -3.76658        5.68286
H         -2.94515       -3.35495        3.50411
H          0.04201       -2.47521        3.70097
H         -2.15332       -2.06357        1.52223
H         -3.28993       -5.66901        7.73441
H          2.44697        3.57684       -4.62207
H         -0.06323        5.08430       -6.60955
H         -4.35136        0.93381       -1.13742
H         -4.00146        2.80751       -3.60777
H         -6.51166        1.68754       -2.13116
H         -0.58606        0.74006       -0.88198
H         -6.51166        5.80129       -7.55486
H         -4.00146        4.68132       -6.07825
H         -4.35136        6.55502       -8.54860
H         -8.67196        3.92759       -5.08451
H          1.54394        4.49814       -5.83675
H         -1.31616        3.74441       -4.84301
H          1.54394        2.99068       -3.84927
H         -1.31616        2.23695       -2.85552
H         -0.06106        6.56559       -8.56254

